120
Lattice="8.399999999999991 -4.199999999999996 -4.199999999999999 0.0 -2.0999999999999903 10.5 -6.3 -8.4 -2.1" Properties=species:S:1:pos:R:3 pbc="T T T"
Y        2.10000000     -10.50000000      -4.20000000
O        4.20000000      -8.40000000      -2.10000000
La       4.20000000      -8.40000000      -4.20000000
O        6.30000000      -6.30000000      -2.10000000
La       6.30000000      -6.30000000      -4.20000000
O        2.10000000     -12.60000000      -4.20000000
Ce       2.10000000     -12.60000000      -2.10000000
O        4.20000000     -10.50000000       0.00000000
Ce       0.00000000     -10.50000000      -2.10000000
O        2.10000000      -8.40000000       0.00000000
Y        2.10000000      -8.40000000      -2.10000000
O        4.20000000      -6.30000000       0.00000000
Ce       4.20000000      -6.30000000      -2.10000000
O        6.30000000      -4.20000000       0.00000000
Pr       6.30000000      -4.20000000      -2.10000000
O        2.10000000     -10.50000000      -2.10000000
Y        2.10000000     -10.50000000       0.00000000
O        4.20000000      -8.40000000       2.10000000
Y        4.20000000      -8.40000000       0.00000000
O        6.30000000      -6.30000000       2.10000000
Ce       6.30000000      -6.30000000       0.00000000
O        2.10000000     -12.60000000       0.00000000
Nd       2.10000000     -12.60000000       2.10000000
O        4.20000000     -10.50000000       4.20000000
Pr       4.20000000     -10.50000000       2.10000000
O        6.30000000      -8.40000000       4.20000000
La      -2.10000000      -8.40000000      -2.10000000
O        0.00000000      -6.30000000       0.00000000
Y        0.00000000      -6.30000000      -2.10000000
O        2.10000000      -4.20000000       0.00000000
La       2.10000000      -4.20000000      -2.10000000
O       -2.10000000     -10.50000000      -2.10000000
Nd       4.20000000      -2.10000000      -2.10000000
O        0.00000000      -8.40000000      -2.10000000
La      -2.10000000     -10.50000000       0.00000000
O        0.00000000      -8.40000000       2.10000000
Ce       0.00000000      -8.40000000       0.00000000
O        2.10000000      -6.30000000       2.10000000
Nd       2.10000000      -6.30000000       0.00000000
O        4.20000000      -4.20000000       2.10000000
Ce       4.20000000      -4.20000000       0.00000000
O        0.00000000     -10.50000000       0.00000000
Pr       0.00000000     -10.50000000       2.10000000
O        2.10000000      -8.40000000       4.20000000
Pr       2.10000000      -8.40000000       2.10000000
O        4.20000000      -6.30000000       4.20000000
Pr       4.20000000      -6.30000000       2.10000000
O        0.00000000     -12.60000000       2.10000000
La       6.30000000      -4.20000000       2.10000000
O        2.10000000     -10.50000000       2.10000000
Y        0.00000000     -12.60000000       4.20000000
O        2.10000000      -8.40000000      -4.20000000
La       2.10000000     -10.50000000       4.20000000
O        4.20000000      -8.40000000       6.30000000
Pr       4.20000000      -8.40000000       4.20000000
O        6.30000000      -6.30000000       6.30000000
Nd       6.30000000      -6.30000000       4.20000000
O        2.10000000     -12.60000000       4.20000000
La      -4.20000000      -8.40000000       0.00000000
O       -2.10000000      -6.30000000       2.10000000
Pr      -2.10000000      -6.30000000       0.00000000
O        0.00000000      -4.20000000       2.10000000
Pr       0.00000000      -4.20000000       0.00000000
O        2.10000000      -2.10000000       2.10000000
Nd       2.10000000      -2.10000000       0.00000000
O       -2.10000000      -8.40000000       0.00000000
La      -2.10000000      -8.40000000       2.10000000
O        0.00000000      -6.30000000       4.20000000
Ce       0.00000000      -6.30000000       2.10000000
O        2.10000000      -4.20000000       4.20000000
Y        2.10000000      -4.20000000       2.10000000
O       -2.10000000     -10.50000000       2.10000000
La      -2.10000000     -10.50000000       4.20000000
O        0.00000000      -8.40000000       6.30000000
Nd       0.00000000      -8.40000000       4.20000000
O        2.10000000      -6.30000000       6.30000000
Ce       2.10000000      -6.30000000       4.20000000
O        4.20000000      -4.20000000       6.30000000
Pr       4.20000000      -4.20000000       4.20000000
O        0.00000000     -10.50000000       4.20000000
Y        0.00000000     -10.50000000       6.30000000
O        2.10000000      -6.30000000      -2.10000000
La       2.10000000      -8.40000000       6.30000000
O        4.20000000      -4.20000000      -2.10000000
Nd       4.20000000      -6.30000000       6.30000000
O        0.00000000     -10.50000000      -4.20000000
Nd       0.00000000       0.00000000       0.00000000
O       -4.20000000      -6.30000000       0.00000000
Pr      -4.20000000      -6.30000000       2.10000000
O       -2.10000000      -4.20000000       4.20000000
Nd      -2.10000000      -4.20000000       2.10000000
O        0.00000000      -2.10000000       4.20000000
Y        0.00000000      -2.10000000       2.10000000
O       -4.20000000      -8.40000000       2.10000000
Nd      -4.20000000      -8.40000000       4.20000000
O       -2.10000000      -6.30000000       6.30000000
Pr      -2.10000000      -6.30000000       4.20000000
O        0.00000000      -4.20000000       6.30000000
Nd       0.00000000      -4.20000000       4.20000000
O       -4.20000000     -10.50000000       4.20000000
La       2.10000000      -2.10000000       4.20000000
O       -2.10000000      -8.40000000       4.20000000
Y       -4.20000000     -10.50000000       6.30000000
O       -2.10000000      -6.30000000      -2.10000000
Pr      -2.10000000      -8.40000000       6.30000000
O        0.00000000      -6.30000000       8.40000000
Ce       0.00000000      -6.30000000       6.30000000
O        2.10000000      -4.20000000       8.40000000
Nd       2.10000000      -4.20000000       6.30000000
O       -2.10000000     -10.50000000       6.30000000
Y       -2.10000000      -4.20000000       6.30000000
O        0.00000000      -2.10000000       8.40000000
Y        0.00000000      -2.10000000       6.30000000
O       -4.20000000      -8.40000000       6.30000000
Ce      -4.20000000      -8.40000000       8.40000000
O       -2.10000000      -4.20000000       0.00000000
Ce      -2.10000000      -6.30000000       8.40000000
O        0.00000000      -2.10000000       0.00000000
Ce       0.00000000      -4.20000000       8.40000000
O       -4.20000000      -8.40000000      -2.10000000
